10000064
  -OEChem-08262200182D

 39 42  0     1  0  0  0  0  0999 V2000
    2.0000   -0.1118    0.0000 Br  0  0  0  0  0  0  0  0  0  0  0  0
    9.7690    1.4683    0.0000 F   0  0  0  0  0  0  0  0  0  0  0  0
    5.5443   -1.9165    0.0000 N   0  0  0  0  0  0  0  0  0  0  0  0
    5.1871    1.3878    0.0000 N   0  0  0  0  0  0  0  0  0  0  0  0
    4.5316    2.8670    0.0000 N   0  0  0  0  0  0  0  0  0  0  0  0
    5.8550    0.6435    0.0000 C   0  0  3  0  0  0  0  0  0  0  0  0
    5.5443   -0.3071    0.0000 C   0  0  0  0  0  0  0  0  0  0  0  0
    4.5981   -0.6118    0.0000 C   0  0  0  0  0  0  0  0  0  0  0  0
    4.5981   -1.6118    0.0000 C   0  0  0  0  0  0  0  0  0  0  0  0
    6.1279   -1.1118    0.0000 C   0  0  0  0  0  0  0  0  0  0  0  0
    6.8335    0.8497    0.0000 C   0  0  0  0  0  0  0  0  0  0  0  0
    3.7320   -0.1118    0.0000 C   0  0  0  0  0  0  0  0  0  0  0  0
    3.7320   -2.1118    0.0000 C   0  0  0  0  0  0  0  0  0  0  0  0
    5.8550   -2.8670    0.0000 C   0  0  0  0  0  0  0  0  0  0  0  0
    7.1441    1.8002    0.0000 C   0  0  0  0  0  0  0  0  0  0  0  0
    7.5013    0.1054    0.0000 C   0  0  0  0  0  0  0  0  0  0  0  0
    4.1924    1.2850    0.0000 C   0  0  0  0  0  0  0  0  0  0  0  0
    5.3967    2.3656    0.0000 C   0  0  0  0  0  0  0  0  0  0  0  0
    2.8660   -0.6118    0.0000 C   0  0  0  0  0  0  0  0  0  0  0  0
    2.8660   -1.6118    0.0000 C   0  0  0  0  0  0  0  0  0  0  0  0
    3.7873    2.1992    0.0000 C   0  0  0  0  0  0  0  0  0  0  0  0
    8.1226    2.0064    0.0000 C   0  0  0  0  0  0  0  0  0  0  0  0
    8.4798    0.3116    0.0000 C   0  0  0  0  0  0  0  0  0  0  0  0
    8.7905    1.2621    0.0000 C   0  0  0  0  0  0  0  0  0  0  0  0
    6.0476    1.2328    0.0000 H   0  0  0  0  0  0  0  0  0  0  0  0
    6.7479   -1.1118    0.0000 H   0  0  0  0  0  0  0  0  0  0  0  0
    3.7320    0.5082    0.0000 H   0  0  0  0  0  0  0  0  0  0  0  0
    3.7320   -2.7318    0.0000 H   0  0  0  0  0  0  0  0  0  0  0  0
    5.2656   -3.0597    0.0000 H   0  0  0  0  0  0  0  0  0  0  0  0
    6.0476   -3.4564    0.0000 H   0  0  0  0  0  0  0  0  0  0  0  0
    6.4443   -2.6744    0.0000 H   0  0  0  0  0  0  0  0  0  0  0  0
    6.7301    2.2617    0.0000 H   0  0  0  0  0  0  0  0  0  0  0  0
    7.3087   -0.4839    0.0000 H   0  0  0  0  0  0  0  0  0  0  0  0
    3.8815    0.7486    0.0000 H   0  0  0  0  0  0  0  0  0  0  0  0
    5.9636    2.6167    0.0000 H   0  0  0  0  0  0  0  0  0  0  0  0
    2.3291   -1.9218    0.0000 H   0  0  0  0  0  0  0  0  0  0  0  0
    3.1810    2.3292    0.0000 H   0  0  0  0  0  0  0  0  0  0  0  0
    8.3152    2.5957    0.0000 H   0  0  0  0  0  0  0  0  0  0  0  0
    8.8939   -0.1499    0.0000 H   0  0  0  0  0  0  0  0  0  0  0  0
  1 19  1  0  0  0  0
  2 24  1  0  0  0  0
  3  9  1  0  0  0  0
  3 10  1  0  0  0  0
  3 14  1  0  0  0  0
  4  6  1  0  0  0  0
  4 17  1  0  0  0  0
  4 18  1  0  0  0  0
  5 18  2  0  0  0  0
  5 21  1  0  0  0  0
  6  7  1  0  0  0  0
  6 11  1  0  0  0  0
  6 25  1  0  0  0  0
  7  8  1  0  0  0  0
  7 10  2  0  0  0  0
  8  9  2  0  0  0  0
  8 12  1  0  0  0  0
  9 13  1  0  0  0  0
 10 26  1  0  0  0  0
 11 15  2  0  0  0  0
 11 16  1  0  0  0  0
 12 19  2  0  0  0  0
 12 27  1  0  0  0  0
 13 20  2  0  0  0  0
 13 28  1  0  0  0  0
 14 29  1  0  0  0  0
 14 30  1  0  0  0  0
 14 31  1  0  0  0  0
 15 22  1  0  0  0  0
 15 32  1  0  0  0  0
 16 23  2  0  0  0  0
 16 33  1  0  0  0  0
 17 21  2  0  0  0  0
 17 34  1  0  0  0  0
 18 35  1  0  0  0  0
 19 20  1  0  0  0  0
 20 36  1  0  0  0  0
 21 37  1  0  0  0  0
 22 24  2  0  0  0  0
 22 38  1  0  0  0  0
 23 24  1  0  0  0  0
 23 39  1  0  0  0  0
M  END
> <PUBCHEM_COMPOUND_CID>
10000064

> <PUBCHEM_COMPOUND_CANONICALIZED>
1

> <PUBCHEM_CACTVS_COMPLEXITY>
429

> <PUBCHEM_CACTVS_HBOND_ACCEPTOR>
2

> <PUBCHEM_CACTVS_HBOND_DONOR>
0

> <PUBCHEM_CACTVS_ROTATABLE_BOND>
3

> <PUBCHEM_CACTVS_SUBSKEYS>
AAADccB7AQAAEAAAAAAAAAAAAAAAAWLAAAAwYAAAAAAAAFgB/AAAHQBAAAABrCjBHgw/0PcMEACgAzRnZACCgC0xEqQJ2CA4dLiIaOLA2ZGUIAhogALIyjcQgMAOgAAgEAACAAAAAEAgAAQAAAAAAAAAAA==

> <PUBCHEM_IUPAC_OPENEYE_NAME>
5-bromo-3-[(4-fluorophenyl)-imidazol-1-yl-methyl]-1-methyl-indole

> <PUBCHEM_IUPAC_CAS_NAME>
5-bromo-3-[(4-fluorophenyl)-(1-imidazolyl)methyl]-1-methylindole

> <PUBCHEM_IUPAC_NAME_MARKUP>
5-bromo-3-[(4-fluorophenyl)-imidazol-1-ylmethyl]-1-methylindole

> <PUBCHEM_IUPAC_NAME>
5-bromo-3-[(4-fluorophenyl)-imidazol-1-ylmethyl]-1-methylindole

> <PUBCHEM_IUPAC_SYSTEMATIC_NAME>
5-bromanyl-3-[(4-fluorophenyl)-imidazol-1-yl-methyl]-1-methyl-indole

> <PUBCHEM_IUPAC_TRADITIONAL_NAME>
5-bromo-3-[(4-fluorophenyl)-imidazol-1-yl-methyl]-1-methyl-indole

> <PUBCHEM_IUPAC_INCHI>
InChI=1S/C19H15BrFN3/c1-23-11-17(16-10-14(20)4-7-18(16)23)19(24-9-8-22-12-24)13-2-5-15(21)6-3-13/h2-12,19H,1H3

> <PUBCHEM_IUPAC_INCHIKEY>
UAPZRTARLLMWAH-UHFFFAOYSA-N

> <PUBCHEM_XLOGP3_AA>
4.2

> <PUBCHEM_EXACT_MASS>
383.04334

> <PUBCHEM_MOLECULAR_FORMULA>
C19H15BrFN3

> <PUBCHEM_MOLECULAR_WEIGHT>
384.2

> <PUBCHEM_OPENEYE_CAN_SMILES>
CN1C=C(C2=C1C=CC(=C2)Br)C(C3=CC=C(C=C3)F)N4C=CN=C4

> <PUBCHEM_OPENEYE_ISO_SMILES>
CN1C=C(C2=C1C=CC(=C2)Br)C(C3=CC=C(C=C3)F)N4C=CN=C4

> <PUBCHEM_CACTVS_TPSA>
22.8

> <PUBCHEM_MONOISOTOPIC_WEIGHT>
383.04334

> <PUBCHEM_TOTAL_CHARGE>
0

> <PUBCHEM_HEAVY_ATOM_COUNT>
24

> <PUBCHEM_ATOM_DEF_STEREO_COUNT>
0

> <PUBCHEM_ATOM_UDEF_STEREO_COUNT>
1

> <PUBCHEM_BOND_DEF_STEREO_COUNT>
0

> <PUBCHEM_BOND_UDEF_STEREO_COUNT>
0

> <PUBCHEM_ISOTOPIC_ATOM_COUNT>
0

> <PUBCHEM_COMPONENT_COUNT>
1

> <PUBCHEM_CACTVS_TAUTO_COUNT>
-1

> <PUBCHEM_COORDINATE_TYPE>
1
5
255

> <PUBCHEM_BONDANNOTATIONS>
11  15  8
11  16  8
12  19  8
13  20  8
15  22  8
16  23  8
17  21  8
19  20  8
22  24  8
23  24  8
3  10  8
3  9  8
4  17  8
4  18  8
5  18  8
5  21  8
6  11  3
7  10  8
7  8  8
8  12  8
8  9  8
9  13  8

$$$$
