10000106
  -OEChem-08262200182D

 67 67  0     1  0  0  0  0  0999 V2000
    5.2867   -3.5874    0.0000 O   0  0  0  0  0  0  0  0  0  0  0  0
    6.9568   -0.5350    0.0000 O   0  0  0  0  0  0  0  0  0  0  0  0
    2.6166   -0.5350    0.0000 O   0  0  0  0  0  0  0  0  0  0  0  0
    3.6989   -4.3964    0.0000 O   0  0  0  0  0  0  0  0  0  0  0  0
    6.7757   -2.2576    0.0000 O   0  0  0  0  0  0  0  0  0  0  0  0
    4.7867   -2.0485    0.0000 C   0  0  2  0  0  0  0  0  0  0  0  0
    3.9777   -2.6363    0.0000 C   0  0  0  0  0  0  0  0  0  0  0  0
    4.1989   -1.2395    0.0000 C   0  0  0  0  0  0  0  0  0  0  0  0
    5.5957   -2.6363    0.0000 C   0  0  0  0  0  0  0  0  0  0  0  0
    5.3745   -1.2395    0.0000 C   0  0  0  0  0  0  0  0  0  0  0  0
    4.2867   -3.5874    0.0000 C   0  0  0  0  0  0  0  0  0  0  0  0
    3.2044   -1.3440    0.0000 C   0  0  0  0  0  0  0  0  0  0  0  0
    6.3690   -1.3440    0.0000 C   0  0  0  0  0  0  0  0  0  0  0  0
   11.7037    1.5784    0.0000 C   0  0  0  0  0  0  0  0  0  0  0  0
   12.6982    1.4739    0.0000 C   0  0  0  0  0  0  0  0  0  0  0  0
   11.1159    0.7694    0.0000 C   0  0  0  0  0  0  0  0  0  0  0  0
   13.2860    2.2829    0.0000 C   0  0  0  0  0  0  0  0  0  0  0  0
   10.1214    0.8739    0.0000 C   0  0  0  0  0  0  0  0  0  0  0  0
    9.5336    0.0649    0.0000 C   0  0  0  0  0  0  0  0  0  0  0  0
   14.2805    2.1784    0.0000 C   0  0  0  0  0  0  0  0  0  0  0  0
    8.5391    0.1695    0.0000 C   0  0  0  0  0  0  0  0  0  0  0  0
    7.9513   -0.6396    0.0000 C   0  0  0  0  0  0  0  0  0  0  0  0
   14.8683    2.9874    0.0000 C   0  0  0  0  0  0  0  0  0  0  0  0
   15.8628    2.8829    0.0000 C   0  0  0  0  0  0  0  0  0  0  0  0
   16.4506    3.6919    0.0000 C   0  0  0  0  0  0  0  0  0  0  0  0
   17.4452    3.5874    0.0000 C   0  0  0  0  0  0  0  0  0  0  0  0
   18.0329    4.3964    0.0000 C   0  0  0  0  0  0  0  0  0  0  0  0
    3.6677   -2.0994    0.0000 H   0  0  0  0  0  0  0  0  0  0  0  0
    3.4113   -2.8885    0.0000 H   0  0  0  0  0  0  0  0  0  0  0  0
    4.7562   -0.9677    0.0000 H   0  0  0  0  0  0  0  0  0  0  0  0
    4.0280   -0.6435    0.0000 H   0  0  0  0  0  0  0  0  0  0  0  0
    6.1621   -2.8885    0.0000 H   0  0  0  0  0  0  0  0  0  0  0  0
    5.9057   -2.0994    0.0000 H   0  0  0  0  0  0  0  0  0  0  0  0
    5.5454   -0.6435    0.0000 H   0  0  0  0  0  0  0  0  0  0  0  0
    4.8172   -0.9677    0.0000 H   0  0  0  0  0  0  0  0  0  0  0  0
    2.6471   -1.6158    0.0000 H   0  0  0  0  0  0  0  0  0  0  0  0
    3.3753   -1.9400    0.0000 H   0  0  0  0  0  0  0  0  0  0  0  0
   11.8746    2.1744    0.0000 H   0  0  0  0  0  0  0  0  0  0  0  0
   11.1465    1.8502    0.0000 H   0  0  0  0  0  0  0  0  0  0  0  0
   12.5273    0.8779    0.0000 H   0  0  0  0  0  0  0  0  0  0  0  0
   13.2555    1.2021    0.0000 H   0  0  0  0  0  0  0  0  0  0  0  0
   10.9450    0.1734    0.0000 H   0  0  0  0  0  0  0  0  0  0  0  0
   11.6732    0.4976    0.0000 H   0  0  0  0  0  0  0  0  0  0  0  0
   13.4569    2.8789    0.0000 H   0  0  0  0  0  0  0  0  0  0  0  0
   12.7288    2.5547    0.0000 H   0  0  0  0  0  0  0  0  0  0  0  0
   10.2923    1.4699    0.0000 H   0  0  0  0  0  0  0  0  0  0  0  0
    9.5642    1.1457    0.0000 H   0  0  0  0  0  0  0  0  0  0  0  0
    9.3627   -0.5310    0.0000 H   0  0  0  0  0  0  0  0  0  0  0  0
   10.0909   -0.2069    0.0000 H   0  0  0  0  0  0  0  0  0  0  0  0
   14.1096    1.5824    0.0000 H   0  0  0  0  0  0  0  0  0  0  0  0
   14.8378    1.9066    0.0000 H   0  0  0  0  0  0  0  0  0  0  0  0
    8.7100    0.7654    0.0000 H   0  0  0  0  0  0  0  0  0  0  0  0
    7.9818    0.4413    0.0000 H   0  0  0  0  0  0  0  0  0  0  0  0
    7.7804   -1.2355    0.0000 H   0  0  0  0  0  0  0  0  0  0  0  0
    8.5086   -0.9113    0.0000 H   0  0  0  0  0  0  0  0  0  0  0  0
   15.0392    3.5834    0.0000 H   0  0  0  0  0  0  0  0  0  0  0  0
   14.3111    3.2592    0.0000 H   0  0  0  0  0  0  0  0  0  0  0  0
   15.6920    2.2869    0.0000 H   0  0  0  0  0  0  0  0  0  0  0  0
   16.4201    2.6111    0.0000 H   0  0  0  0  0  0  0  0  0  0  0  0
    2.0000   -0.5998    0.0000 H   0  0  0  0  0  0  0  0  0  0  0  0
   16.6215    4.2879    0.0000 H   0  0  0  0  0  0  0  0  0  0  0  0
   15.8934    3.9637    0.0000 H   0  0  0  0  0  0  0  0  0  0  0  0
   17.2743    2.9914    0.0000 H   0  0  0  0  0  0  0  0  0  0  0  0
   18.0024    3.3156    0.0000 H   0  0  0  0  0  0  0  0  0  0  0  0
   18.5345    4.0320    0.0000 H   0  0  0  0  0  0  0  0  0  0  0  0
   18.3974    4.8980    0.0000 H   0  0  0  0  0  0  0  0  0  0  0  0
   17.5313    4.7608    0.0000 H   0  0  0  0  0  0  0  0  0  0  0  0
  1  9  1  0  0  0  0
  1 11  1  0  0  0  0
  2 13  1  0  0  0  0
  2 22  1  0  0  0  0
  3 12  1  0  0  0  0
  3 60  1  0  0  0  0
  4 11  2  0  0  0  0
  5 13  2  0  0  0  0
  6  7  1  0  0  0  0
  6  8  1  6  0  0  0
  6  9  1  0  0  0  0
  6 10  1  0  0  0  0
  7 11  1  0  0  0  0
  7 28  1  0  0  0  0
  7 29  1  0  0  0  0
  8 12  1  0  0  0  0
  8 30  1  0  0  0  0
  8 31  1  0  0  0  0
  9 32  1  0  0  0  0
  9 33  1  0  0  0  0
 10 13  1  0  0  0  0
 10 34  1  0  0  0  0
 10 35  1  0  0  0  0
 12 36  1  0  0  0  0
 12 37  1  0  0  0  0
 14 15  1  0  0  0  0
 14 16  1  0  0  0  0
 14 38  1  0  0  0  0
 14 39  1  0  0  0  0
 15 17  1  0  0  0  0
 15 40  1  0  0  0  0
 15 41  1  0  0  0  0
 16 18  1  0  0  0  0
 16 42  1  0  0  0  0
 16 43  1  0  0  0  0
 17 20  1  0  0  0  0
 17 44  1  0  0  0  0
 17 45  1  0  0  0  0
 18 19  1  0  0  0  0
 18 46  1  0  0  0  0
 18 47  1  0  0  0  0
 19 21  1  0  0  0  0
 19 48  1  0  0  0  0
 19 49  1  0  0  0  0
 20 23  1  0  0  0  0
 20 50  1  0  0  0  0
 20 51  1  0  0  0  0
 21 22  1  0  0  0  0
 21 52  1  0  0  0  0
 21 53  1  0  0  0  0
 22 54  1  0  0  0  0
 22 55  1  0  0  0  0
 23 24  1  0  0  0  0
 23 56  1  0  0  0  0
 23 57  1  0  0  0  0
 24 25  1  0  0  0  0
 24 58  1  0  0  0  0
 24 59  1  0  0  0  0
 25 26  1  0  0  0  0
 25 61  1  0  0  0  0
 25 62  1  0  0  0  0
 26 27  1  0  0  0  0
 26 63  1  0  0  0  0
 26 64  1  0  0  0  0
 27 65  1  0  0  0  0
 27 66  1  0  0  0  0
 27 67  1  0  0  0  0
M  END
> <PUBCHEM_COMPOUND_CID>
10000106

> <PUBCHEM_COMPOUND_CANONICALIZED>
1

> <PUBCHEM_CACTVS_COMPLEXITY>
410

> <PUBCHEM_CACTVS_HBOND_ACCEPTOR>
5

> <PUBCHEM_CACTVS_HBOND_DONOR>
1

> <PUBCHEM_CACTVS_ROTATABLE_BOND>
18

> <PUBCHEM_CACTVS_SUBSKEYS>
AAADcfB4OAAAAAAAAAAAAAAAAAAAASAAAAAAAAAAAAAAAAAAAAAAGgAACAAADgCggAICCAAABgAIAACQCAAAAAAAAAAAAAEAAAAAEBIAAAACQAAEAAAAAAHK5qgLAAAAAAAAAAAAAAAAAAAAAAAAAAAAAA==

> <PUBCHEM_IUPAC_OPENEYE_NAME>
tetradecyl 2-[(3S)-3-(2-hydroxyethyl)-5-oxo-tetrahydrofuran-3-yl]acetate

> <PUBCHEM_IUPAC_CAS_NAME>
2-[(3S)-3-(2-hydroxyethyl)-5-oxo-3-oxolanyl]acetic acid tetradecyl ester

> <PUBCHEM_IUPAC_NAME_MARKUP>
tetradecyl 2-[(3<I>S</I>)-3-(2-hydroxyethyl)-5-oxooxolan-3-yl]acetate

> <PUBCHEM_IUPAC_NAME>
tetradecyl 2-[(3S)-3-(2-hydroxyethyl)-5-oxooxolan-3-yl]acetate

> <PUBCHEM_IUPAC_SYSTEMATIC_NAME>
tetradecyl 2-[(3S)-3-(2-hydroxyethyl)-5-oxidanylidene-oxolan-3-yl]ethanoate

> <PUBCHEM_IUPAC_TRADITIONAL_NAME>
2-[(3S)-3-(2-hydroxyethyl)-5-keto-tetrahydrofuran-3-yl]acetic acid myristyl ester

> <PUBCHEM_IUPAC_INCHI>
InChI=1S/C22H40O5/c1-2-3-4-5-6-7-8-9-10-11-12-13-16-26-20(24)17-22(14-15-23)18-21(25)27-19-22/h23H,2-19H2,1H3/t22-/m1/s1

> <PUBCHEM_IUPAC_INCHIKEY>
FEPNQNVZHJMHEN-JOCHJYFZSA-N

> <PUBCHEM_XLOGP3_AA>
6.1

> <PUBCHEM_EXACT_MASS>
384.28757437

> <PUBCHEM_MOLECULAR_FORMULA>
C22H40O5

> <PUBCHEM_MOLECULAR_WEIGHT>
384.5

> <PUBCHEM_OPENEYE_CAN_SMILES>
CCCCCCCCCCCCCCOC(=O)CC1(CC(=O)OC1)CCO

> <PUBCHEM_OPENEYE_ISO_SMILES>
CCCCCCCCCCCCCCOC(=O)C[C@@]1(CC(=O)OC1)CCO

> <PUBCHEM_CACTVS_TPSA>
72.8

> <PUBCHEM_MONOISOTOPIC_WEIGHT>
384.28757437

> <PUBCHEM_TOTAL_CHARGE>
0

> <PUBCHEM_HEAVY_ATOM_COUNT>
27

> <PUBCHEM_ATOM_DEF_STEREO_COUNT>
1

> <PUBCHEM_ATOM_UDEF_STEREO_COUNT>
0

> <PUBCHEM_BOND_DEF_STEREO_COUNT>
0

> <PUBCHEM_BOND_UDEF_STEREO_COUNT>
0

> <PUBCHEM_ISOTOPIC_ATOM_COUNT>
0

> <PUBCHEM_COMPONENT_COUNT>
1

> <PUBCHEM_CACTVS_TAUTO_COUNT>
-1

> <PUBCHEM_COORDINATE_TYPE>
1
5
255

> <PUBCHEM_BONDANNOTATIONS>
6  8  6

$$$$
