10000110
  -OEChem-08262200182D

 64 68  0     1  0  0  0  0  0999 V2000
    7.9821    2.5351    0.0000 O   0  0  0  0  0  0  0  0  0  0  0  0
    2.0000   -2.5168    0.0000 O   0  0  0  0  0  0  0  0  0  0  0  0
    5.6451   -2.5337    0.0000 N   0  0  0  0  0  0  0  0  0  0  0  0
    9.6285    1.9970    0.0000 N   0  0  0  0  0  0  0  0  0  0  0  0
    7.3931    0.5355    0.0000 C   0  0  1  0  0  0  0  0  0  0  0  0
    7.3931   -0.4645    0.0000 C   0  0  2  0  0  0  0  0  0  0  0  0
    6.5271   -0.9645    0.0000 C   0  0  1  0  0  0  0  0  0  0  0  0
    5.6610   -0.4645    0.0000 C   0  0  1  0  0  0  0  0  0  0  0  0
    8.3393    0.8403    0.0000 C   0  0  2  0  0  0  0  0  0  0  0  0
    6.5271    1.0355    0.0000 C   0  0  0  0  0  0  0  0  0  0  0  0
    8.3393   -0.7692    0.0000 C   0  0  0  0  0  0  0  0  0  0  0  0
    4.7510   -0.9713    0.0000 C   0  0  2  0  0  0  0  0  0  0  0  0
    5.6610    0.5355    0.0000 C   0  0  0  0  0  0  0  0  0  0  0  0
    8.9229    0.0355    0.0000 C   0  0  0  0  0  0  0  0  0  0  0  0
    6.5431   -2.0060    0.0000 C   0  0  0  0  0  0  0  0  0  0  0  0
    7.3931    1.5355    0.0000 C   0  0  0  0  0  0  0  0  0  0  0  0
    4.7430   -2.0129    0.0000 C   0  0  0  0  0  0  0  0  0  0  0  0
    3.8242   -0.4072    0.0000 C   0  0  0  0  0  0  0  0  0  0  0  0
    8.6500    1.7908    0.0000 C   0  0  0  0  0  0  0  0  0  0  0  0
    4.7587    0.0286    0.0000 C   0  0  0  0  0  0  0  0  0  0  0  0
    2.8763   -0.9352    0.0000 C   0  0  0  0  0  0  0  0  0  0  0  0
    3.8076   -2.5626    0.0000 C   0  0  0  0  0  0  0  0  0  0  0  0
    2.8680   -2.0202    0.0000 C   0  0  0  0  0  0  0  0  0  0  0  0
   10.2963    1.2527    0.0000 C   0  0  0  0  0  0  0  0  0  0  0  0
    9.9391    2.9475    0.0000 C   0  0  0  0  0  0  0  0  0  0  0  0
   11.2748    1.4589    0.0000 C   0  0  0  0  0  0  0  0  0  0  0  0
   10.9176    3.1537    0.0000 C   0  0  0  0  0  0  0  0  0  0  0  0
   11.5855    2.4094    0.0000 C   0  0  0  0  0  0  0  0  0  0  0  0
    7.4830   -1.3097    0.0000 H   0  0  0  0  0  0  0  0  0  0  0  0
    7.2664   -1.3838    0.0000 H   0  0  0  0  0  0  0  0  0  0  0  0
    6.3972   -0.0395    0.0000 H   0  0  0  0  0  0  0  0  0  0  0  0
    7.9018    1.2796    0.0000 H   0  0  0  0  0  0  0  0  0  0  0  0
    6.9256    1.5105    0.0000 H   0  0  0  0  0  0  0  0  0  0  0  0
    6.1285    1.5105    0.0000 H   0  0  0  0  0  0  0  0  0  0  0  0
    8.0883   -1.3361    0.0000 H   0  0  0  0  0  0  0  0  0  0  0  0
    8.8767   -1.0784    0.0000 H   0  0  0  0  0  0  0  0  0  0  0  0
    5.4490    1.1181    0.0000 H   0  0  0  0  0  0  0  0  0  0  0  0
    5.0504    0.4279    0.0000 H   0  0  0  0  0  0  0  0  0  0  0  0
    9.3838   -0.3792    0.0000 H   0  0  0  0  0  0  0  0  0  0  0  0
    9.3838    0.4503    0.0000 H   0  0  0  0  0  0  0  0  0  0  0  0
    6.7612   -2.5864    0.0000 H   0  0  0  0  0  0  0  0  0  0  0  0
    7.1523   -1.8905    0.0000 H   0  0  0  0  0  0  0  0  0  0  0  0
    8.0131    1.5355    0.0000 H   0  0  0  0  0  0  0  0  0  0  0  0
    7.3931    2.1555    0.0000 H   0  0  0  0  0  0  0  0  0  0  0  0
    6.7731    1.5355    0.0000 H   0  0  0  0  0  0  0  0  0  0  0  0
    4.2324    0.0594    0.0000 H   0  0  0  0  0  0  0  0  0  0  0  0
    3.4343    0.0748    0.0000 H   0  0  0  0  0  0  0  0  0  0  0  0
    5.6475   -3.1537    0.0000 H   0  0  0  0  0  0  0  0  0  0  0  0
    5.3787    0.0239    0.0000 H   0  0  0  0  0  0  0  0  0  0  0  0
    4.7635    0.6486    0.0000 H   0  0  0  0  0  0  0  0  0  0  0  0
    4.1388    0.0334    0.0000 H   0  0  0  0  0  0  0  0  0  0  0  0
    2.6718   -0.3499    0.0000 H   0  0  0  0  0  0  0  0  0  0  0  0
    2.2647   -1.0366    0.0000 H   0  0  0  0  0  0  0  0  0  0  0  0
    3.8100   -3.1826    0.0000 H   0  0  0  0  0  0  0  0  0  0  0  0
    9.7700    0.9251    0.0000 H   0  0  0  0  0  0  0  0  0  0  0  0
   10.5276    0.6774    0.0000 H   0  0  0  0  0  0  0  0  0  0  0  0
    9.9186    3.5672    0.0000 H   0  0  0  0  0  0  0  0  0  0  0  0
    9.3253    3.0349    0.0000 H   0  0  0  0  0  0  0  0  0  0  0  0
   11.2954    0.8393    0.0000 H   0  0  0  0  0  0  0  0  0  0  0  0
   11.8886    1.3716    0.0000 H   0  0  0  0  0  0  0  0  0  0  0  0
   11.4440    3.4814    0.0000 H   0  0  0  0  0  0  0  0  0  0  0  0
   10.6864    3.7290    0.0000 H   0  0  0  0  0  0  0  0  0  0  0  0
   12.1324    2.1174    0.0000 H   0  0  0  0  0  0  0  0  0  0  0  0
   11.9680    2.8973    0.0000 H   0  0  0  0  0  0  0  0  0  0  0  0
  1 19  2  0  0  0  0
  2 23  2  0  0  0  0
  3 15  1  0  0  0  0
  3 17  1  0  0  0  0
  3 48  1  0  0  0  0
  4 19  1  0  0  0  0
  4 24  1  0  0  0  0
  4 25  1  0  0  0  0
  5  6  1  0  0  0  0
  5  9  1  0  0  0  0
  5 10  1  0  0  0  0
  5 16  1  1  0  0  0
  6  7  1  0  0  0  0
  6 11  1  0  0  0  0
  6 29  1  6  0  0  0
  7  8  1  0  0  0  0
  7 15  1  0  0  0  0
  7 30  1  1  0  0  0
  8 12  1  0  0  0  0
  8 13  1  0  0  0  0
  8 31  1  6  0  0  0
  9 14  1  0  0  0  0
  9 19  1  1  0  0  0
  9 32  1  0  0  0  0
 10 13  1  0  0  0  0
 10 33  1  0  0  0  0
 10 34  1  0  0  0  0
 11 14  1  0  0  0  0
 11 35  1  0  0  0  0
 11 36  1  0  0  0  0
 12 17  1  0  0  0  0
 12 18  1  0  0  0  0
 12 20  1  1  0  0  0
 13 37  1  0  0  0  0
 13 38  1  0  0  0  0
 14 39  1  0  0  0  0
 14 40  1  0  0  0  0
 15 41  1  0  0  0  0
 15 42  1  0  0  0  0
 16 43  1  0  0  0  0
 16 44  1  0  0  0  0
 16 45  1  0  0  0  0
 17 22  2  0  0  0  0
 18 21  1  0  0  0  0
 18 46  1  0  0  0  0
 18 47  1  0  0  0  0
 20 49  1  0  0  0  0
 20 50  1  0  0  0  0
 20 51  1  0  0  0  0
 21 23  1  0  0  0  0
 21 52  1  0  0  0  0
 21 53  1  0  0  0  0
 22 23  1  0  0  0  0
 22 54  1  0  0  0  0
 24 26  1  0  0  0  0
 24 55  1  0  0  0  0
 24 56  1  0  0  0  0
 25 27  1  0  0  0  0
 25 57  1  0  0  0  0
 25 58  1  0  0  0  0
 26 28  1  0  0  0  0
 26 59  1  0  0  0  0
 26 60  1  0  0  0  0
 27 28  1  0  0  0  0
 27 61  1  0  0  0  0
 27 62  1  0  0  0  0
 28 63  1  0  0  0  0
 28 64  1  0  0  0  0
M  END
> <PUBCHEM_COMPOUND_CID>
10000110

> <PUBCHEM_COMPOUND_CANONICALIZED>
1

> <PUBCHEM_CACTVS_COMPLEXITY>
709

> <PUBCHEM_CACTVS_HBOND_ACCEPTOR>
3

> <PUBCHEM_CACTVS_HBOND_DONOR>
1

> <PUBCHEM_CACTVS_ROTATABLE_BOND>
1

> <PUBCHEM_CACTVS_SUBSKEYS>
AAADcfB7MAAAAAAAAAAAAAAAAAAAAYAAAAA8WIEAAAAAAGCwAAAAHgAQAAAADwzBgAQCAAPAAACIAKVSUAAAAAAgAgAACIEIAEgAABIAgAAEAAAAlgCIAUMYicCPgAAAAAAAAACAAAQAACAAAQAACAAAAA==

> <PUBCHEM_IUPAC_OPENEYE_NAME>
(1S,3aS,3bS,9aR,9bS,11aS)-9a,11a-dimethyl-1-(piperidine-1-carbonyl)-1,2,3,3a,3b,4,5,8,9,9b,10,11-dodecahydrocyclopenta[i]phenanthridin-7-one

> <PUBCHEM_IUPAC_CAS_NAME>
(1S,3aS,3bS,9aR,9bS,11aS)-9a,11a-dimethyl-1-[oxo(1-piperidinyl)methyl]-1,2,3,3a,3b,4,5,8,9,9b,10,11-dodecahydrocyclopenta[i]phenanthridin-7-one

> <PUBCHEM_IUPAC_NAME_MARKUP>
(1<I>S</I>,3<I>a</I><I>S</I>,3<I>b</I><I>S</I>,9<I>a</I><I>R</I>,9<I>b</I><I>S</I>,11<I>a</I><I>S</I>)-9<I>a</I>,11<I>a</I>-dimethyl-1-(piperidine-1-carbonyl)-1,2,3,3<I>a</I>,3<I>b</I>,4,5,8,9,9<I>b</I>,10,11-dodecahydrocyclopenta[i]phenanthridin-7-one

> <PUBCHEM_IUPAC_NAME>
(1S,3aS,3bS,9aR,9bS,11aS)-9a,11a-dimethyl-1-(piperidine-1-carbonyl)-1,2,3,3a,3b,4,5,8,9,9b,10,11-dodecahydrocyclopenta[i]phenanthridin-7-one

> <PUBCHEM_IUPAC_SYSTEMATIC_NAME>
(1S,3aS,3bS,9aR,9bS,11aS)-9a,11a-dimethyl-1-piperidin-1-ylcarbonyl-1,2,3,3a,3b,4,5,8,9,9b,10,11-dodecahydrocyclopenta[i]phenanthridin-7-one

> <PUBCHEM_IUPAC_TRADITIONAL_NAME>
(1S,3aS,3bS,9aR,9bS,11aS)-9a,11a-dimethyl-1-(piperidine-1-carbonyl)-1,2,3,3a,3b,4,5,8,9,9b,10,11-dodecahydrocyclopenta[i]phenanthridin-7-one

> <PUBCHEM_IUPAC_INCHI>
InChI=1S/C24H36N2O2/c1-23-11-9-19-17(15-25-21-14-16(27)8-10-24(19,21)2)18(23)6-7-20(23)22(28)26-12-4-3-5-13-26/h14,17-20,25H,3-13,15H2,1-2H3/t17-,18-,19-,20+,23-,24+/m0/s1

> <PUBCHEM_IUPAC_INCHIKEY>
BYQVVFSIVTYXEA-VPOPLMJOSA-N

> <PUBCHEM_XLOGP3_AA>
4

> <PUBCHEM_EXACT_MASS>
384.277678395

> <PUBCHEM_MOLECULAR_FORMULA>
C24H36N2O2

> <PUBCHEM_MOLECULAR_WEIGHT>
384.6

> <PUBCHEM_OPENEYE_CAN_SMILES>
CC12CCC3C(C1CCC2C(=O)N4CCCCC4)CNC5=CC(=O)CCC35C

> <PUBCHEM_OPENEYE_ISO_SMILES>
C[C@]12CC[C@H]3[C@H]([C@@H]1CC[C@@H]2C(=O)N4CCCCC4)CNC5=CC(=O)CC[C@]35C

> <PUBCHEM_CACTVS_TPSA>
49.4

> <PUBCHEM_MONOISOTOPIC_WEIGHT>
384.277678395

> <PUBCHEM_TOTAL_CHARGE>
0

> <PUBCHEM_HEAVY_ATOM_COUNT>
28

> <PUBCHEM_ATOM_DEF_STEREO_COUNT>
6

> <PUBCHEM_ATOM_UDEF_STEREO_COUNT>
0

> <PUBCHEM_BOND_DEF_STEREO_COUNT>
0

> <PUBCHEM_BOND_UDEF_STEREO_COUNT>
0

> <PUBCHEM_ISOTOPIC_ATOM_COUNT>
0

> <PUBCHEM_COMPONENT_COUNT>
1

> <PUBCHEM_CACTVS_TAUTO_COUNT>
-1

> <PUBCHEM_COORDINATE_TYPE>
1
5
255

> <PUBCHEM_BONDANNOTATIONS>
12  20  5
5  16  5
6  29  6
7  30  5
8  31  6
9  19  5

$$$$
