10000177
  -OEChem-08262200182D

 56 60  0     1  0  0  0  0  0999 V2000
   11.3568    2.1039    0.0000 N   0  0  3  0  0  0  0  0  0  0  0  0
   10.4808    0.5656    0.0000 N   0  0  0  0  0  0  0  0  0  0  0  0
    9.5868    2.1281    0.0000 N   0  0  0  0  0  0  0  0  0  0  0  0
    6.8925   -1.2459    0.0000 N   0  0  0  0  0  0  0  0  0  0  0  0
    7.8170    2.0903    0.0000 N   0  0  0  0  0  0  0  0  0  0  0  0
   11.3606    3.1039    0.0000 C   0  0  0  0  0  0  0  0  0  0  0  0
   11.8640    3.9680    0.0000 C   0  0  0  0  0  0  0  0  0  0  0  0
   10.8640    3.9718    0.0000 C   0  0  0  0  0  0  0  0  0  0  0  0
   10.4888    1.6072    0.0000 C   0  0  0  0  0  0  0  0  0  0  0  0
   12.2209    1.6006    0.0000 C   0  0  0  0  0  0  0  0  0  0  0  0
    8.7048    0.5588    0.0000 C   0  0  0  0  0  0  0  0  0  0  0  0
    9.5708    0.0588    0.0000 C   0  0  0  0  0  0  0  0  0  0  0  0
    7.8388    0.0588    0.0000 C   0  0  0  0  0  0  0  0  0  0  0  0
    8.6887    1.6003    0.0000 C   0  0  0  0  0  0  0  0  0  0  0  0
    7.8388   -0.9412    0.0000 C   0  0  0  0  0  0  0  0  0  0  0  0
    9.5708   -0.9412    0.0000 C   0  0  0  0  0  0  0  0  0  0  0  0
    6.5819   -2.1964    0.0000 C   0  0  0  0  0  0  0  0  0  0  0  0
    8.7048   -1.4412    0.0000 C   0  0  0  0  0  0  0  0  0  0  0  0
    6.8925    0.3635    0.0000 C   0  0  0  0  0  0  0  0  0  0  0  0
    6.3089   -0.4412    0.0000 C   0  0  0  0  0  0  0  0  0  0  0  0
    5.6034   -2.4027    0.0000 C   0  0  0  0  0  0  0  0  0  0  0  0
    2.6678   -3.0213    0.0000 C   0  0  0  0  0  0  0  0  0  0  0  0
    3.6464   -2.8151    0.0000 C   0  0  0  0  0  0  0  0  0  0  0  0
    5.2927   -3.3532    0.0000 C   0  0  0  0  0  0  0  0  0  0  0  0
    4.9355   -1.6584    0.0000 C   0  0  0  0  0  0  0  0  0  0  0  0
    4.3142   -3.5594    0.0000 C   0  0  0  0  0  0  0  0  0  0  0  0
    3.9570   -1.8646    0.0000 C   0  0  0  0  0  0  0  0  0  0  0  0
    2.3572   -3.9718    0.0000 C   0  0  0  0  0  0  0  0  0  0  0  0
    2.0000   -2.2770    0.0000 C   0  0  0  0  0  0  0  0  0  0  0  0
   11.9589    2.9411    0.0000 H   0  0  0  0  0  0  0  0  0  0  0  0
   12.4458    3.7537    0.0000 H   0  0  0  0  0  0  0  0  0  0  0  0
   11.9740    4.5782    0.0000 H   0  0  0  0  0  0  0  0  0  0  0  0
   10.7587    4.5828    0.0000 H   0  0  0  0  0  0  0  0  0  0  0  0
   10.2806    3.7620    0.0000 H   0  0  0  0  0  0  0  0  0  0  0  0
   11.9088    1.0648    0.0000 H   0  0  0  0  0  0  0  0  0  0  0  0
   12.7566    1.2885    0.0000 H   0  0  0  0  0  0  0  0  0  0  0  0
   12.5329    2.1363    0.0000 H   0  0  0  0  0  0  0  0  0  0  0  0
   10.1077   -1.2512    0.0000 H   0  0  0  0  0  0  0  0  0  0  0  0
    6.6024   -2.8161    0.0000 H   0  0  0  0  0  0  0  0  0  0  0  0
    7.1957   -2.2838    0.0000 H   0  0  0  0  0  0  0  0  0  0  0  0
    8.7048   -2.0612    0.0000 H   0  0  0  0  0  0  0  0  0  0  0  0
    6.6999    0.9529    0.0000 H   0  0  0  0  0  0  0  0  0  0  0  0
    5.6889   -0.4412    0.0000 H   0  0  0  0  0  0  0  0  0  0  0  0
    7.8098    2.7102    0.0000 H   0  0  0  0  0  0  0  0  0  0  0  0
    7.2836    1.7741    0.0000 H   0  0  0  0  0  0  0  0  0  0  0  0
    2.8604   -2.4320    0.0000 H   0  0  0  0  0  0  0  0  0  0  0  0
    5.7068   -3.8147    0.0000 H   0  0  0  0  0  0  0  0  0  0  0  0
    5.1281   -1.0690    0.0000 H   0  0  0  0  0  0  0  0  0  0  0  0
    4.1216   -4.1487    0.0000 H   0  0  0  0  0  0  0  0  0  0  0  0
    3.5430   -1.4031    0.0000 H   0  0  0  0  0  0  0  0  0  0  0  0
    1.7679   -3.7792    0.0000 H   0  0  0  0  0  0  0  0  0  0  0  0
    2.1646   -4.5612    0.0000 H   0  0  0  0  0  0  0  0  0  0  0  0
    2.9465   -4.1645    0.0000 H   0  0  0  0  0  0  0  0  0  0  0  0
    2.4615   -1.8630    0.0000 H   0  0  0  0  0  0  0  0  0  0  0  0
    1.5859   -1.8156    0.0000 H   0  0  0  0  0  0  0  0  0  0  0  0
    1.5385   -2.6911    0.0000 H   0  0  0  0  0  0  0  0  0  0  0  0
  1  6  1  0  0  0  0
  1  9  1  0  0  0  0
  1 10  1  0  0  0  0
  2  9  2  0  0  0  0
  2 12  1  0  0  0  0
  3  9  1  0  0  0  0
  3 14  2  0  0  0  0
  4 15  1  0  0  0  0
  4 17  1  0  0  0  0
  4 20  1  0  0  0  0
  5 14  1  0  0  0  0
  5 44  1  0  0  0  0
  5 45  1  0  0  0  0
  6  7  1  0  0  0  0
  6  8  1  0  0  0  0
  6 30  1  0  0  0  0
  7  8  1  0  0  0  0
  7 31  1  0  0  0  0
  7 32  1  0  0  0  0
  8 33  1  0  0  0  0
  8 34  1  0  0  0  0
 10 35  1  0  0  0  0
 10 36  1  0  0  0  0
 10 37  1  0  0  0  0
 11 12  2  0  0  0  0
 11 13  1  0  0  0  0
 11 14  1  0  0  0  0
 12 16  1  0  0  0  0
 13 15  2  0  0  0  0
 13 19  1  0  0  0  0
 15 18  1  0  0  0  0
 16 18  2  0  0  0  0
 16 38  1  0  0  0  0
 17 21  1  0  0  0  0
 17 39  1  0  0  0  0
 17 40  1  0  0  0  0
 18 41  1  0  0  0  0
 19 20  2  0  0  0  0
 19 42  1  0  0  0  0
 20 43  1  0  0  0  0
 21 24  2  0  0  0  0
 21 25  1  0  0  0  0
 22 23  1  0  0  0  0
 22 28  1  0  0  0  0
 22 29  1  0  0  0  0
 22 46  1  0  0  0  0
 23 26  2  0  0  0  0
 23 27  1  0  0  0  0
 24 26  1  0  0  0  0
 24 47  1  0  0  0  0
 25 27  2  0  0  0  0
 25 48  1  0  0  0  0
 26 49  1  0  0  0  0
 27 50  1  0  0  0  0
 28 51  1  0  0  0  0
 28 52  1  0  0  0  0
 28 53  1  0  0  0  0
 29 54  1  0  0  0  0
 29 55  1  0  0  0  0
 29 56  1  0  0  0  0
M  END
> <PUBCHEM_COMPOUND_CID>
10000177

> <PUBCHEM_COMPOUND_CANONICALIZED>
1

> <PUBCHEM_CACTVS_COMPLEXITY>
556

> <PUBCHEM_CACTVS_HBOND_ACCEPTOR>
4

> <PUBCHEM_CACTVS_HBOND_DONOR>
1

> <PUBCHEM_CACTVS_ROTATABLE_BOND>
5

> <PUBCHEM_CACTVS_SUBSKEYS>
AAADceB7gAAAAAAAAAAAAAAAGAAAAWAAAAA8YIAAAAAAAFix/gAAHAAQAAAADSjBHgQ/8PdMEACgAzZnZACCgCkxAqAJ2CA4ZJiIKOLA2dGEJAhogALIyCcQgMAOwACAQAASAACAAQCAACQAAAAAAAAAAA==

> <PUBCHEM_IUPAC_OPENEYE_NAME>
N3-cyclopropyl-7-[(4-isopropylphenyl)methyl]-N3-methyl-pyrrolo[3,2-f]quinazoline-1,3-diamine

> <PUBCHEM_IUPAC_CAS_NAME>
N3-cyclopropyl-N3-methyl-7-[(4-propan-2-ylphenyl)methyl]pyrrolo[3,2-f]quinazoline-1,3-diamine

> <PUBCHEM_IUPAC_NAME_MARKUP>
3-<I>N</I>-cyclopropyl-3-<I>N</I>-methyl-7-[(4-propan-2-ylphenyl)methyl]pyrrolo[3,2-f]quinazoline-1,3-diamine

> <PUBCHEM_IUPAC_NAME>
3-N-cyclopropyl-3-N-methyl-7-[(4-propan-2-ylphenyl)methyl]pyrrolo[3,2-f]quinazoline-1,3-diamine

> <PUBCHEM_IUPAC_SYSTEMATIC_NAME>
N3-cyclopropyl-N3-methyl-7-[(4-propan-2-ylphenyl)methyl]pyrrolo[3,2-f]quinazoline-1,3-diamine

> <PUBCHEM_IUPAC_TRADITIONAL_NAME>
[1-amino-7-(4-isopropylbenzyl)pyrrolo[3,2-f]quinazolin-3-yl]-cyclopropyl-methyl-amine

> <PUBCHEM_IUPAC_INCHI>
InChI=1S/C24H27N5/c1-15(2)17-6-4-16(5-7-17)14-29-13-12-19-21(29)11-10-20-22(19)23(25)27-24(26-20)28(3)18-8-9-18/h4-7,10-13,15,18H,8-9,14H2,1-3H3,(H2,25,26,27)

> <PUBCHEM_IUPAC_INCHIKEY>
MNFAOEQXSOWASB-UHFFFAOYSA-N

> <PUBCHEM_XLOGP3_AA>
5

> <PUBCHEM_EXACT_MASS>
385.22664588

> <PUBCHEM_MOLECULAR_FORMULA>
C24H27N5

> <PUBCHEM_MOLECULAR_WEIGHT>
385.5

> <PUBCHEM_OPENEYE_CAN_SMILES>
CC(C)C1=CC=C(C=C1)CN2C=CC3=C2C=CC4=C3C(=NC(=N4)N(C)C5CC5)N

> <PUBCHEM_OPENEYE_ISO_SMILES>
CC(C)C1=CC=C(C=C1)CN2C=CC3=C2C=CC4=C3C(=NC(=N4)N(C)C5CC5)N

> <PUBCHEM_CACTVS_TPSA>
60

> <PUBCHEM_MONOISOTOPIC_WEIGHT>
385.22664588

> <PUBCHEM_TOTAL_CHARGE>
0

> <PUBCHEM_HEAVY_ATOM_COUNT>
29

> <PUBCHEM_ATOM_DEF_STEREO_COUNT>
0

> <PUBCHEM_ATOM_UDEF_STEREO_COUNT>
0

> <PUBCHEM_BOND_DEF_STEREO_COUNT>
0

> <PUBCHEM_BOND_UDEF_STEREO_COUNT>
0

> <PUBCHEM_ISOTOPIC_ATOM_COUNT>
0

> <PUBCHEM_COMPONENT_COUNT>
1

> <PUBCHEM_CACTVS_TAUTO_COUNT>
-1

> <PUBCHEM_COORDINATE_TYPE>
1
5
255

> <PUBCHEM_BONDANNOTATIONS>
11  12  8
11  13  8
11  14  8
12  16  8
13  15  8
13  19  8
15  18  8
16  18  8
19  20  8
2  12  8
2  9  8
21  24  8
21  25  8
23  26  8
23  27  8
24  26  8
25  27  8
3  14  8
3  9  8
4  15  8
4  20  8

$$$$
