10000015
  -OEChem-08262200182D

 49 52  0     1  0  0  0  0  0999 V2000
    7.2825   -3.6457    0.0000 O   0  0  0  0  0  0  0  0  0  0  0  0
    8.7929   -2.9183    0.0000 O   0  0  0  0  0  0  0  0  0  0  0  0
    5.3788   -2.4500    0.0000 O   0  0  0  0  0  0  0  0  0  0  0  0
    2.2948   -0.7689    0.0000 O   0  0  0  0  0  0  0  0  0  0  0  0
    2.7031    1.0315    0.0000 O   0  0  0  0  0  0  0  0  0  0  0  0
    7.0052    2.8540    0.0000 O   0  0  0  0  0  0  0  0  0  0  0  0
    5.4447    2.1025    0.0000 N   0  0  0  0  0  0  0  0  0  0  0  0
    5.8786    1.2015    0.0000 C   0  0  1  0  0  0  0  0  0  0  0  0
    6.8786    1.2015    0.0000 C   0  0  0  0  0  0  0  0  0  0  0  0
    7.5021    0.4197    0.0000 C   0  0  0  0  0  0  0  0  0  0  0  0
    7.2796   -0.5553    0.0000 C   0  0  0  0  0  0  0  0  0  0  0  0
    5.2551    0.4197    0.0000 C   0  0  0  0  0  0  0  0  0  0  0  0
    6.3786   -0.9892    0.0000 C   0  0  0  0  0  0  0  0  0  0  0  0
    5.4776   -0.5553    0.0000 C   0  0  0  0  0  0  0  0  0  0  0  0
    6.2847   -2.0265    0.0000 C   0  0  0  0  0  0  0  0  0  0  0  0
    8.1491   -1.1287    0.0000 C   0  0  0  0  0  0  0  0  0  0  0  0
    7.1408   -2.6199    0.0000 C   0  0  0  0  0  0  0  0  0  0  0  0
    8.0793   -2.1680    0.0000 C   0  0  0  0  0  0  0  0  0  0  0  0
    4.3686    0.8393    0.0000 C   0  0  0  0  0  0  0  0  0  0  0  0
    4.8610   -1.3180    0.0000 C   0  0  0  0  0  0  0  0  0  0  0  0
    3.4866    0.4101    0.0000 C   0  0  0  0  0  0  0  0  0  0  0  0
    3.8802   -1.3140    0.0000 C   0  0  0  0  0  0  0  0  0  0  0  0
    6.0080    2.9287    0.0000 C   0  0  0  0  0  0  0  0  0  0  0  0
    8.3015   -3.8297    0.0000 C   0  0  0  0  0  0  0  0  0  0  0  0
    3.2697   -0.5464    0.0000 C   0  0  0  0  0  0  0  0  0  0  0  0
    5.5741    3.8297    0.0000 C   0  0  0  0  0  0  0  0  0  0  0  0
    5.2926   -3.4462    0.0000 C   0  0  0  0  0  0  0  0  0  0  0  0
    2.0000   -1.7244    0.0000 C   0  0  0  0  0  0  0  0  0  0  0  0
    6.2084    1.7265    0.0000 H   0  0  0  0  0  0  0  0  0  0  0  0
    7.4372    1.4705    0.0000 H   0  0  0  0  0  0  0  0  0  0  0  0
    6.7406    1.8060    0.0000 H   0  0  0  0  0  0  0  0  0  0  0  0
    8.0607    0.1507    0.0000 H   0  0  0  0  0  0  0  0  0  0  0  0
    7.8886    0.9044    0.0000 H   0  0  0  0  0  0  0  0  0  0  0  0
    8.7046   -0.8532    0.0000 H   0  0  0  0  0  0  0  0  0  0  0  0
    4.8264    2.1488    0.0000 H   0  0  0  0  0  0  0  0  0  0  0  0
    4.3652    1.4592    0.0000 H   0  0  0  0  0  0  0  0  0  0  0  0
    5.1270   -1.8780    0.0000 H   0  0  0  0  0  0  0  0  0  0  0  0
    3.6097   -1.8719    0.0000 H   0  0  0  0  0  0  0  0  0  0  0  0
    8.1278   -4.4248    0.0000 H   0  0  0  0  0  0  0  0  0  0  0  0
    8.8751   -4.0649    0.0000 H   0  0  0  0  0  0  0  0  0  0  0  0
    6.1327    4.0987    0.0000 H   0  0  0  0  0  0  0  0  0  0  0  0
    5.3051    4.3883    0.0000 H   0  0  0  0  0  0  0  0  0  0  0  0
    5.0155    3.5607    0.0000 H   0  0  0  0  0  0  0  0  0  0  0  0
    4.6749   -3.3928    0.0000 H   0  0  0  0  0  0  0  0  0  0  0  0
    5.2391   -4.0639    0.0000 H   0  0  0  0  0  0  0  0  0  0  0  0
    5.9102   -3.4997    0.0000 H   0  0  0  0  0  0  0  0  0  0  0  0
    1.4075   -1.5417    0.0000 H   0  0  0  0  0  0  0  0  0  0  0  0
    1.8172   -2.3169    0.0000 H   0  0  0  0  0  0  0  0  0  0  0  0
    2.5925   -1.9072    0.0000 H   0  0  0  0  0  0  0  0  0  0  0  0
  1 17  1  0  0  0  0
  1 24  1  0  0  0  0
  2 18  1  0  0  0  0
  2 24  1  0  0  0  0
  3 15  1  0  0  0  0
  3 27  1  0  0  0  0
  4 25  1  0  0  0  0
  4 28  1  0  0  0  0
  5 21  2  0  0  0  0
  6 23  2  0  0  0  0
  8  7  1  1  0  0  0
  7 23  1  0  0  0  0
  7 35  1  0  0  0  0
  8  9  1  0  0  0  0
  8 12  1  0  0  0  0
  8 29  1  0  0  0  0
  9 10  1  0  0  0  0
  9 30  1  0  0  0  0
  9 31  1  0  0  0  0
 10 11  1  0  0  0  0
 10 32  1  0  0  0  0
 10 33  1  0  0  0  0
 11 13  1  0  0  0  0
 11 16  2  0  0  0  0
 12 14  1  0  0  0  0
 12 19  2  0  0  0  0
 13 14  1  0  0  0  0
 13 15  2  0  0  0  0
 14 20  2  0  0  0  0
 15 17  1  0  0  0  0
 16 18  1  0  0  0  0
 16 34  1  0  0  0  0
 17 18  2  0  0  0  0
 19 21  1  0  0  0  0
 19 36  1  0  0  0  0
 20 22  1  0  0  0  0
 20 37  1  0  0  0  0
 21 25  1  0  0  0  0
 22 25  2  0  0  0  0
 22 38  1  0  0  0  0
 23 26  1  0  0  0  0
 24 39  1  0  0  0  0
 24 40  1  0  0  0  0
 26 41  1  0  0  0  0
 26 42  1  0  0  0  0
 26 43  1  0  0  0  0
 27 44  1  0  0  0  0
 27 45  1  0  0  0  0
 27 46  1  0  0  0  0
 28 47  1  0  0  0  0
 28 48  1  0  0  0  0
 28 49  1  0  0  0  0
M  END
> <PUBCHEM_COMPOUND_CID>
10000015

> <PUBCHEM_COMPOUND_CANONICALIZED>
1

> <PUBCHEM_CACTVS_COMPLEXITY>
754

> <PUBCHEM_CACTVS_HBOND_ACCEPTOR>
6

> <PUBCHEM_CACTVS_HBOND_DONOR>
1

> <PUBCHEM_CACTVS_ROTATABLE_BOND>
3

> <PUBCHEM_CACTVS_SUBSKEYS>
AAADceB6OAAAAAAAAAAAAAAAAAAAASAAAAAwAAAABggAAEgBAAAAHgAQAAAADCzBmAcyDoLABACIAqFSEAKCCAAgIAAAiIBOiMgdJyKEsR6kMCIl1hWOqYeQ8P8OoAABCAAYQABAAAIQADCAAAAAAAAAAA==

> <PUBCHEM_IUPAC_OPENEYE_NAME>
N-[(9S)-5,19-dimethoxy-6-oxo-15,17-dioxatetracyclo[10.7.0.02,8.014,18]nonadeca-1(19),2,4,7,12,14(18)-hexaen-9-yl]acetamide

> <PUBCHEM_IUPAC_CAS_NAME>
N-[(9S)-5,19-dimethoxy-6-oxo-15,17-dioxatetracyclo[10.7.0.02,8.014,18]nonadeca-1(19),2,4,7,12,14(18)-hexaen-9-yl]acetamide

> <PUBCHEM_IUPAC_NAME_MARKUP>
<I>N</I>-[(9<I>S</I>)-5,19-dimethoxy-6-oxo-15,17-dioxatetracyclo[10.7.0.0<SUP>2,8</SUP>.0<SUP>14,18</SUP>]nonadeca-1(19),2,4,7,12,14(18)-hexaen-9-yl]acetamide

> <PUBCHEM_IUPAC_NAME>
N-[(9S)-5,19-dimethoxy-6-oxo-15,17-dioxatetracyclo[10.7.0.02,8.014,18]nonadeca-1(19),2,4,7,12,14(18)-hexaen-9-yl]acetamide

> <PUBCHEM_IUPAC_SYSTEMATIC_NAME>
N-[(9S)-5,19-dimethoxy-6-oxidanylidene-15,17-dioxatetracyclo[10.7.0.02,8.014,18]nonadeca-1(19),2,4,7,12,14(18)-hexaen-9-yl]ethanamide

> <PUBCHEM_IUPAC_TRADITIONAL_NAME>
N-[(9S)-6-keto-5,19-dimethoxy-15,17-dioxatetracyclo[10.7.0.02,8.014,18]nonadeca-1(19),2,4,7,12,14(18)-hexaen-9-yl]acetamide

> <PUBCHEM_IUPAC_INCHI>
InChI=1S/C21H21NO6/c1-11(23)22-15-6-4-12-8-18-20(28-10-27-18)21(26-3)19(12)13-5-7-17(25-2)16(24)9-14(13)15/h5,7-9,15H,4,6,10H2,1-3H3,(H,22,23)/t15-/m0/s1

> <PUBCHEM_IUPAC_INCHIKEY>
DCYAJVOKJAFSES-HNNXBMFYSA-N

> <PUBCHEM_XLOGP3>
0.7

> <PUBCHEM_EXACT_MASS>
383.13688739

> <PUBCHEM_MOLECULAR_FORMULA>
C21H21NO6

> <PUBCHEM_MOLECULAR_WEIGHT>
383.4

> <PUBCHEM_OPENEYE_CAN_SMILES>
CC(=O)NC1CCC2=CC3=C(C(=C2C4=CC=C(C(=O)C=C14)OC)OC)OCO3

> <PUBCHEM_OPENEYE_ISO_SMILES>
CC(=O)N[C@H]1CCC2=CC3=C(C(=C2C4=CC=C(C(=O)C=C14)OC)OC)OCO3

> <PUBCHEM_CACTVS_TPSA>
83.1

> <PUBCHEM_MONOISOTOPIC_WEIGHT>
383.13688739

> <PUBCHEM_TOTAL_CHARGE>
0

> <PUBCHEM_HEAVY_ATOM_COUNT>
28

> <PUBCHEM_ATOM_DEF_STEREO_COUNT>
1

> <PUBCHEM_ATOM_UDEF_STEREO_COUNT>
0

> <PUBCHEM_BOND_DEF_STEREO_COUNT>
0

> <PUBCHEM_BOND_UDEF_STEREO_COUNT>
0

> <PUBCHEM_ISOTOPIC_ATOM_COUNT>
0

> <PUBCHEM_COMPONENT_COUNT>
1

> <PUBCHEM_CACTVS_TAUTO_COUNT>
2

> <PUBCHEM_COORDINATE_TYPE>
1
5
255

> <PUBCHEM_BONDANNOTATIONS>
11  13  8
11  16  8
12  14  8
12  19  8
13  15  8
14  20  8
15  17  8
16  18  8
17  18  8
19  21  8
20  22  8
21  25  8
22  25  8
8  7  5

$$$$
